
#======================================================================
# CRYSTAL DATA
#----------------------------------------------------------------------
data_VESTA_phase_1

_chemical_name_common                  'La O4 P'
_cell_length_a                         6.831300
_cell_length_b                         7.070500
_cell_length_c                         6.503400
_cell_angle_alpha                      90.000000
_cell_angle_beta                       103.269997
_cell_angle_gamma                      90.000000
_cell_volume                           305.731573
_space_group_name_H-M_alt              'P 21/n'
_space_group_IT_number                 14

loop_
_space_group_symop_operation_xyz
   'x, y, z'
   '-x, -y, -z'
   '-x+1/2, y+1/2, -z+1/2'
   'x+1/2, -y+1/2, z+1/2'

loop_
   _atom_site_label
   _atom_site_occupancy
   _atom_site_fract_x
   _atom_site_fract_y
   _atom_site_fract_z
   _atom_site_adp_type
   _atom_site_U_iso_or_equiv
   _atom_site_type_symbol
   La         1.0     0.281540     0.160330     0.100680    Uiso  0.003720 La
   P          1.0     0.304700     0.163900     0.612100    Uiso  0.004180 P
   O1         1.0     0.250300     0.007700     0.447700    Uiso  0.009880 O
   O2         1.0     0.379900     0.331500     0.496400    Uiso  0.007730 O
   O3         1.0     0.474800     0.107100     0.801800    Uiso  0.007980 O
   O4         1.0     0.127700     0.216800     0.710100    Uiso  0.008360 O
