
#======================================================================
# CRYSTAL DATA
#----------------------------------------------------------------------
data_VESTA_phase_1

_chemical_name_common                  'Y P O4'
_cell_length_a                         6.894700
_cell_length_b                         6.894700
_cell_length_c                         6.027600
_cell_angle_alpha                      90.000000
_cell_angle_beta                       90.000000
_cell_angle_gamma                      90.000000
_cell_volume                           286.533342
_space_group_name_H-M_alt              'I 41/a m d'
_space_group_IT_number                 141

loop_
_space_group_symop_operation_xyz
   'x, y, z'
   '-x, -y, -z'
   '-x+1/2, -y, z+1/2'
   'x+1/2, y, -z+1/2'
   '-y+1/4, x+3/4, z+1/4'
   'y+3/4, -x+1/4, -z+3/4'
   'y+1/4, -x+1/4, z+3/4'
   '-y+3/4, x+3/4, -z+1/4'
   '-x+1/2, y, -z+1/2'
   'x+1/2, -y, z+1/2'
   'x, -y, -z'
   '-x, y, z'
   'y+1/4, x+3/4, -z+1/4'
   '-y+3/4, -x+1/4, z+3/4'
   '-y+1/4, -x+1/4, -z+3/4'
   'y+3/4, x+3/4, z+1/4'
   'x+1/2, y+1/2, z+1/2'
   '-x+1/2, -y+1/2, -z+1/2'
   '-x, -y+1/2, z'
   'x, y+1/2, -z'
   '-y+3/4, x+1/4, z+3/4'
   'y+1/4, -x+3/4, -z+1/4'
   'y+3/4, -x+3/4, z+1/4'
   '-y+1/4, x+1/4, -z+3/4'
   '-x, y+1/2, -z'
   'x, -y+1/2, z'
   'x+1/2, -y+1/2, -z+1/2'
   '-x+1/2, y+1/2, z+1/2'
   'y+3/4, x+1/4, -z+3/4'
   '-y+1/4, -x+3/4, z+1/4'
   '-y+3/4, -x+3/4, -z+1/4'
   'y+1/4, x+1/4, z+3/4'

loop_
   _atom_site_label
   _atom_site_occupancy
   _atom_site_fract_x
   _atom_site_fract_y
   _atom_site_fract_z
   _atom_site_adp_type
   _atom_site_U_iso_or_equiv
   _atom_site_type_symbol
   Y          1.0     0.000000     0.750000     0.125000    Uiso  0.005760 Y
   P          1.0     0.000000     0.250000     0.375000    Uiso  0.007850 P
   O          1.0     0.000000     0.075300     0.215800    Uiso  0.011910 O
