
#======================================================================
# CRYSTAL DATA
#----------------------------------------------------------------------
data_VESTA_phase_1

_chemical_name_common                  'Bi3 Nb Ti O9'
_cell_length_a                         5.405000
_cell_length_b                         5.442000
_cell_length_c                         25.110001
_cell_angle_alpha                      90.000000
_cell_angle_beta                       90.000000
_cell_angle_gamma                      90.000000
_cell_volume                           738.585826
_space_group_name_H-M_alt              'F m m m'
_space_group_IT_number                 69

loop_
_space_group_symop_operation_xyz
   'x, y, z'
   '-x, -y, -z'
   '-x, -y, z'
   'x, y, -z'
   '-x, y, -z'
   'x, -y, z'
   'x, -y, -z'
   '-x, y, z'
   'x, y+1/2, z+1/2'
   '-x, -y+1/2, -z+1/2'
   '-x, -y+1/2, z+1/2'
   'x, y+1/2, -z+1/2'
   '-x, y+1/2, -z+1/2'
   'x, -y+1/2, z+1/2'
   'x, -y+1/2, -z+1/2'
   '-x, y+1/2, z+1/2'
   'x+1/2, y, z+1/2'
   '-x+1/2, -y, -z+1/2'
   '-x+1/2, -y, z+1/2'
   'x+1/2, y, -z+1/2'
   '-x+1/2, y, -z+1/2'
   'x+1/2, -y, z+1/2'
   'x+1/2, -y, -z+1/2'
   '-x+1/2, y, z+1/2'
   'x+1/2, y+1/2, z'
   '-x+1/2, -y+1/2, -z'
   '-x+1/2, -y+1/2, z'
   'x+1/2, y+1/2, -z'
   '-x+1/2, y+1/2, -z'
   'x+1/2, -y+1/2, z'
   'x+1/2, -y+1/2, -z'
   '-x+1/2, y+1/2, z'

loop_
   _atom_site_label
   _atom_site_occupancy
   _atom_site_fract_x
   _atom_site_fract_y
   _atom_site_fract_z
   _atom_site_adp_type
   _atom_site_U_iso_or_equiv
   _atom_site_type_symbol
   Bi1        1.0     0.000000     0.000000     0.000000    Uiso  1.000000 Bi
   Bi2        1.0     0.000000     0.000000     0.200000    Uiso  1.000000 Bi
   Nb1        0.5000  0.000000     0.000000     0.412000    Uiso  1.000000 Nb
   Ti1        0.5000  0.000000     0.000000     0.412000    Uiso  1.000000 Ti
   O1         1.0     0.000000     0.000000     0.500000    Uiso  1.000000 O
   O2         1.0     0.000000     0.000000     0.324000    Uiso  1.000000 O
   O3         1.0     0.250000     0.250000     0.250000    Uiso  1.000000 O
   O4         1.0     0.250000     0.250000     0.088000    Uiso  1.000000 O
