
#======================================================================
# CRYSTAL DATA
#----------------------------------------------------------------------
data_VESTA_phase_1

_chemical_name_common                  'N4 Si3'
_cell_length_a                         7.7523(2)
_cell_length_b                         7.7523(2)
_cell_length_c                         5.6198(2)
_cell_angle_alpha                      90.000000
_cell_angle_beta                       90.000000
_cell_angle_gamma                      120.000000
_cell_volume                           292.491073
_space_group_name_H-M_alt              'P 3 1 c'
_space_group_IT_number                 159

loop_
_space_group_symop_operation_xyz
   'x, y, z'
   '-y, x-y, z'
   '-x+y, -x, z'
   'y, x, z+1/2'
   'x-y, -y, z+1/2'
   '-x, -x+y, z+1/2'

loop_
   _atom_site_label
   _atom_site_occupancy
   _atom_site_fract_x
   _atom_site_fract_y
   _atom_site_fract_z
   _atom_site_adp_type
   _atom_site_B_iso_or_equiv
   _atom_site_type_symbol
   N1         1.0     0.000000     0.000000     0.500000    Biso  1.000000 N
   N2         1.0     0.333333     0.666667     0.635100    Biso  1.000000 N
   N3         1.0     0.653300     0.610900     0.459200    Biso  1.000000 N
   N4         1.0     0.316900     0.319800     0.728800    Biso  1.000000 N
   Si1        1.0     0.082100     0.508900     0.682800    Biso  1.000000 Si
   Si2        1.0     0.256300     0.171200     0.472600    Biso  1.000000 Si
