
#======================================================================
# CRYSTAL DATA
#----------------------------------------------------------------------
data_VESTA_phase_1

_chemical_name_common                  'K La Nb2 O7'
_cell_length_a                         3.906000
_cell_length_b                         21.603001
_cell_length_c                         3.887900
_cell_angle_alpha                      90.000000
_cell_angle_beta                       90.000000
_cell_angle_gamma                      90.000000
_cell_volume                           328.066137
_space_group_name_H-M_alt              'C m m m'
_space_group_IT_number                 65

loop_
_space_group_symop_operation_xyz
   'x, y, z'
   '-x, -y, -z'
   '-x, -y, z'
   'x, y, -z'
   '-x, y, -z'
   'x, -y, z'
   'x, -y, -z'
   '-x, y, z'
   'x+1/2, y+1/2, z'
   '-x+1/2, -y+1/2, -z'
   '-x+1/2, -y+1/2, z'
   'x+1/2, y+1/2, -z'
   '-x+1/2, y+1/2, -z'
   'x+1/2, -y+1/2, z'
   'x+1/2, -y+1/2, -z'
   '-x+1/2, y+1/2, z'

loop_
   _atom_site_label
   _atom_site_occupancy
   _atom_site_fract_x
   _atom_site_fract_y
   _atom_site_fract_z
   _atom_site_adp_type
   _atom_site_U_iso_or_equiv
   _atom_site_type_symbol
   K1         0.5000  0.000000     0.234800     0.000000    Uiso  0.001267 K
   La1        1.0     0.000000     0.000000     0.000000    Uiso  0.005066 La
   Nb1        1.0     0.000000     0.395600     0.500000    Uiso  0.001267 Nb
   O1         1.0     0.500000     0.000000     0.500000    Uiso  0.031663 O
   O2         1.0     0.000000     0.414400     0.000000    Uiso  0.001267 O
   O3         1.0     0.000000     0.317600     0.500000    Uiso  0.029130 O
   O4         1.0     0.000000     0.088900     0.500000    Uiso  0.018998 O
