
#======================================================================
# CRYSTAL DATA
#----------------------------------------------------------------------
data_VESTA_phase_1

_chemical_name_common                  'Fe1.89 Ca.75 Mg.24 Mn.09 Al2 Si3 O12'
_cell_length_a                         11.620700
_cell_length_b                         11.620700
_cell_length_c                         11.623000
_cell_angle_alpha                      90.000000
_cell_angle_beta                       90.000000
_cell_angle_gamma                      90.000000
_cell_volume                           1569.577678
_space_group_name_H-M_alt              'I 41/a c d'
_space_group_IT_number                 142

loop_
_space_group_symop_operation_xyz
   'x, y, z'
   '-x, -y, -z'
   '-x+1/2, -y, z+1/2'
   'x+1/2, y, -z+1/2'
   '-y+1/4, x+3/4, z+1/4'
   'y+3/4, -x+1/4, -z+3/4'
   'y+1/4, -x+1/4, z+3/4'
   '-y+3/4, x+3/4, -z+1/4'
   '-x+1/2, y, -z'
   'x+1/2, -y, z'
   'x, -y, -z+1/2'
   '-x, y, z+1/2'
   'y+1/4, x+3/4, -z+3/4'
   '-y+3/4, -x+1/4, z+1/4'
   '-y+1/4, -x+1/4, -z+1/4'
   'y+3/4, x+3/4, z+3/4'
   'x+1/2, y+1/2, z+1/2'
   '-x+1/2, -y+1/2, -z+1/2'
   '-x, -y+1/2, z'
   'x, y+1/2, -z'
   '-y+3/4, x+1/4, z+3/4'
   'y+1/4, -x+3/4, -z+1/4'
   'y+3/4, -x+3/4, z+1/4'
   '-y+1/4, x+1/4, -z+3/4'
   '-x, y+1/2, -z+1/2'
   'x, -y+1/2, z+1/2'
   'x+1/2, -y+1/2, -z'
   '-x+1/2, y+1/2, z'
   'y+3/4, x+1/4, -z+1/4'
   '-y+1/4, -x+3/4, z+3/4'
   '-y+3/4, -x+3/4, -z+3/4'
   'y+1/4, x+1/4, z+1/4'

loop_
   _atom_site_label
   _atom_site_occupancy
   _atom_site_fract_x
   _atom_site_fract_y
   _atom_site_fract_z
   _atom_site_adp_type
   _atom_site_B_iso_or_equiv
   _atom_site_type_symbol
   Fe1        0.6300  0.124900     0.000000     0.250000    Bani  0.894844 Fe
   Ca1        0.2500  0.124900     0.000000     0.250000    Bani  0.894844 Ca
   Mg1        0.0800  0.124900     0.000000     0.250000    Bani  0.894844 Mg
   Mn1        0.0300  0.124900     0.000000     0.250000    Bani  0.894844 Mn
   Fe2        0.6300  0.000000     0.250000     0.125000    Bani  0.852734 Fe
   Ca2        0.2500  0.000000     0.250000     0.125000    Bani  0.852734 Ca
   Mg2        0.0800  0.000000     0.250000     0.125000    Bani  0.852734 Mg
   Mn2        0.0300  0.000000     0.250000     0.125000    Bani  0.852734 Mn
   AlY        1.0     0.000000     0.000000     0.000000    Bani  0.652710 Al
   Si1        1.0     0.374900     0.000000     0.250000    Bani  0.752722 Si
   Si3        1.0     0.000000     0.250000     0.375000    Bani  0.744826 Si
   O1         1.0     0.284800     0.097300     0.202500    Bani  0.968537 O
   O2         1.0     0.097700     0.202400     0.285100    Bani  0.950114 O
   O3         1.0     0.202400     0.284700     0.097600    Bani  0.965905 O

loop_
   _atom_site_aniso_label
   _atom_site_aniso_U_11
   _atom_site_aniso_U_22
   _atom_site_aniso_U_33
   _atom_site_aniso_U_12
   _atom_site_aniso_U_13
   _atom_site_aniso_U_23
   Fe1	 0.00760  0.01340  0.01300  0.00000  0.00000  0.00120
   Ca1	 0.00760  0.01340  0.01300  0.00000  0.00000  0.00120
   Mg1	 0.00760  0.01340  0.01300  0.00000  0.00000  0.00120
   Mn1	 0.00760  0.01340  0.01300  0.00000  0.00000  0.00120
   Fe2	 0.01280  0.01280  0.00680  0.00160  0.00000  0.00000
   Ca2	 0.01280  0.01280  0.00680  0.00160  0.00000  0.00000
   Mg2	 0.01280  0.01280  0.00680  0.00160  0.00000  0.00000
   Mn2	 0.01280  0.01280  0.00680  0.00160  0.00000  0.00000
   AlY	 0.00810  0.00840  0.00830  0.00010 -0.00060 -0.00050
   Si1	 0.01060  0.00910  0.00890  0.00000  0.00000 -0.00010
   Si3	 0.00860  0.00860  0.01110  0.00000  0.00000  0.00000
   O1	 0.01260  0.01260  0.01160  0.00090 -0.00200  0.00010
   O2	 0.01140  0.01140  0.01330  0.00100  0.00020 -0.00090
   O3	 0.01360  0.01180  0.01130 -0.00050  0.00070  0.00010
