
#======================================================================
# CRYSTAL DATA
#----------------------------------------------------------------------
data_VESTA_phase_1

_chemical_name_common                  'Be2 O4 Si'
_cell_length_a                         12.472000
_cell_length_b                         12.472000
_cell_length_c                         8.251000
_cell_angle_alpha                      90.000000
_cell_angle_beta                       90.000000
_cell_angle_gamma                      120.000000
_cell_volume                           1111.499964
_space_group_name_H-M_alt              'R -3'
_space_group_IT_number                 148

loop_
_space_group_symop_operation_xyz
   'x, y, z'
   '-x, -y, -z'
   '-y, x-y, z'
   'y, -x+y, -z'
   '-x+y, -x, z'
   'x-y, x, -z'
   'x+2/3, y+1/3, z+1/3'
   '-x+2/3, -y+1/3, -z+1/3'
   '-y+2/3, x-y+1/3, z+1/3'
   'y+2/3, -x+y+1/3, -z+1/3'
   '-x+y+2/3, -x+1/3, z+1/3'
   'x-y+2/3, x+1/3, -z+1/3'
   'x+1/3, y+2/3, z+2/3'
   '-x+1/3, -y+2/3, -z+2/3'
   '-y+1/3, x-y+2/3, z+2/3'
   'y+1/3, -x+y+2/3, -z+2/3'
   '-x+y+1/3, -x+2/3, z+2/3'
   'x-y+1/3, x+2/3, -z+2/3'

loop_
   _atom_site_label
   _atom_site_occupancy
   _atom_site_fract_x
   _atom_site_fract_y
   _atom_site_fract_z
   _atom_site_adp_type
   _atom_site_B_iso_or_equiv
   _atom_site_type_symbol
   Si         1.0     0.195620     0.984020     0.749900    Biso  1.000000 Si
   Be1        1.0     0.194300     0.984100     0.415600    Biso  1.000000 Be
   Be2        1.0     0.194100     0.982200     0.084600    Biso  1.000000 Be
   O1         1.0     0.209750     0.121250     0.750300    Biso  1.000000 O
   O2         1.0     0.333820     0.000400     0.749910    Biso  1.000000 O
   O3         1.0     0.122230     0.912170     0.914970    Biso  1.000000 O
   O4         1.0     0.122280     0.913420     0.584950    Biso  1.000000 O
