
#======================================================================
# CRYSTAL DATA
#----------------------------------------------------------------------
data_VESTA_phase_1

_chemical_name_common                  '(Mg1.4 Sc.3) Li.3 Si2 O6'
_cell_length_a                         9.251000
_cell_length_b                         8.773000
_cell_length_c                         5.377000
_cell_angle_alpha                      90.000000
_cell_angle_beta                       90.000000
_cell_angle_gamma                      90.000000
_cell_volume                           436.392062
_space_group_name_H-M_alt              'P b c n'
_space_group_IT_number                 60

loop_
_space_group_symop_operation_xyz
   'x, y, z'
   '-x, -y, -z'
   '-x+1/2, -y+1/2, z+1/2'
   'x+1/2, y+1/2, -z+1/2'
   '-x, y, -z+1/2'
   'x, -y, z+1/2'
   'x+1/2, -y+1/2, -z'
   '-x+1/2, y+1/2, z'

loop_
   _atom_site_label
   _atom_site_occupancy
   _atom_site_fract_x
   _atom_site_fract_y
   _atom_site_fract_z
   _atom_site_adp_type
   _atom_site_B_iso_or_equiv
   _atom_site_type_symbol
   Mg1        0.7000  0.000000     0.099400     0.750000    Bani  0.539538 Mg
   Sc1        0.3000  0.000000     0.099400     0.750000    Bani  0.539538 Sc
   Mg2        0.7000  0.000000     0.263900     0.250000    Bani  0.933270 Mg
   Li2        0.3000  0.000000     0.263900     0.250000    Bani  0.933270 Li
   Si         1.0     0.293500     0.090000     0.074000    Bani  0.459266 Si
   O1         1.0     0.119900     0.090800     0.080500    Bani  0.459002 O
   O2         1.0     0.373600     0.250400     0.071000    Bani  0.785884 O
   O3         1.0     0.349300     0.983100     0.304500    Bani  0.727456 O

loop_
   _atom_site_aniso_label
   _atom_site_aniso_U_11
   _atom_site_aniso_U_22
   _atom_site_aniso_U_33
   _atom_site_aniso_U_12
   _atom_site_aniso_U_13
   _atom_site_aniso_U_23
   Mg1	 0.00650  0.00858  0.00542  0.00000 -0.00101  0.00000
   Sc1	 0.00650  0.00858  0.00542  0.00000 -0.00101  0.00000
   Mg2	 0.01171  0.01599  0.00776  0.00000 -0.00126  0.00000
   Li2	 0.01171  0.01599  0.00776  0.00000 -0.00126  0.00000
   Si	 0.00477  0.00858  0.00410 -0.00082  0.00025 -0.00024
   O1	 0.00607  0.00624  0.00513 -0.00082 -0.00025  0.00000
   O2	 0.01084  0.01287  0.00615 -0.00370  0.00076  0.00000
   O3	 0.00564  0.01248  0.00952  0.00082 -0.00101  0.00430
