
#======================================================================
# CRYSTAL DATA
#----------------------------------------------------------------------
data_VESTA_phase_1

_chemical_name_common                  'Zr Si O4'
_cell_length_a                         6.607000
_cell_length_b                         6.607000
_cell_length_c                         5.982000
_cell_angle_alpha                      90.000000
_cell_angle_beta                       90.000000
_cell_angle_gamma                      90.000000
_cell_volume                           261.128934
_space_group_name_H-M_alt              'I 41/a m d'
_space_group_IT_number                 141

loop_
_space_group_symop_operation_xyz
   'x, y, z'
   '-x, -y, -z'
   '-x+1/2, -y, z+1/2'
   'x+1/2, y, -z+1/2'
   '-y+1/4, x+3/4, z+1/4'
   'y+3/4, -x+1/4, -z+3/4'
   'y+1/4, -x+1/4, z+3/4'
   '-y+3/4, x+3/4, -z+1/4'
   '-x+1/2, y, -z+1/2'
   'x+1/2, -y, z+1/2'
   'x, -y, -z'
   '-x, y, z'
   'y+1/4, x+3/4, -z+1/4'
   '-y+3/4, -x+1/4, z+3/4'
   '-y+1/4, -x+1/4, -z+3/4'
   'y+3/4, x+3/4, z+1/4'
   'x+1/2, y+1/2, z+1/2'
   '-x+1/2, -y+1/2, -z+1/2'
   '-x, -y+1/2, z'
   'x, y+1/2, -z'
   '-y+3/4, x+1/4, z+3/4'
   'y+1/4, -x+3/4, -z+1/4'
   'y+3/4, -x+3/4, z+1/4'
   '-y+1/4, x+1/4, -z+3/4'
   '-x, y+1/2, -z'
   'x, -y+1/2, z'
   'x+1/2, -y+1/2, -z+1/2'
   '-x+1/2, y+1/2, z+1/2'
   'y+3/4, x+1/4, -z+3/4'
   '-y+1/4, -x+3/4, z+1/4'
   '-y+3/4, -x+3/4, -z+1/4'
   'y+1/4, x+1/4, z+3/4'

loop_
   _atom_site_label
   _atom_site_occupancy
   _atom_site_fract_x
   _atom_site_fract_y
   _atom_site_fract_z
   _atom_site_adp_type
   _atom_site_B_iso_or_equiv
   _atom_site_type_symbol
   Zr         1.0     0.000000     0.750000     0.125000    Bani  0.168968 Zr
   Si         1.0     0.000000     0.750000     0.625000    Bani  0.291877 Si
   O          1.0     0.000000     0.066100     0.195300    Bani  0.534275 O

loop_
   _atom_site_aniso_label
   _atom_site_aniso_U_11
   _atom_site_aniso_U_22
   _atom_site_aniso_U_33
   _atom_site_aniso_U_12
   _atom_site_aniso_U_13
   _atom_site_aniso_U_23
   Zr	 0.00212  0.00212  0.00218  0.00000  0.00000  0.00000
   Si	 0.00310  0.00310  0.00489  0.00000  0.00000  0.00000
   O	 0.00818  0.00686  0.00526  0.00000  0.00000  0.00000
