
#======================================================================
# CRYSTAL DATA
#----------------------------------------------------------------------
data_VESTA_phase_1

_chemical_name_common                  'Ca C O3'
_cell_length_a                         6.360000
_cell_length_b                         6.360000
_cell_length_c                         6.360000
_cell_angle_alpha                      46.099998
_cell_angle_beta                       46.099998
_cell_angle_gamma                      46.099998
_cell_volume                           121.856657
_space_group_name_H-M_alt              'Custom'
_space_group_IT_number                 167

loop_
_space_group_symop_operation_xyz
   'x, y, z'
   'z, x, y'
   'y, z, x'
   '-y, -x, -z'
   '-x, -z, -y'
   '-z, -y, -x'
   '-x+1/2, -y+1/2, -z+1/2'
   '-y+1/2, -z+1/2, -x+1/2'
   '-z+1/2, -x+1/2, -y+1/2'
   'y+1/2, x+1/2, z+1/2'
   'x+1/2, z+1/2, y+1/2'
   'z+1/2, y+1/2, x+1/2'

loop_
   _atom_site_label
   _atom_site_occupancy
   _atom_site_fract_x
   _atom_site_fract_y
   _atom_site_fract_z
   _atom_site_adp_type
   _atom_site_B_iso_or_equiv
   _atom_site_type_symbol
   Ca1        1.0     0.250000     0.250000     0.250000    Biso  1.000000 Ca
   C1         1.0     0.000000     0.000000     0.000000    Biso  1.000000 C
   O1         1.0     0.2635(11)  -0.263510     0.000000    Biso  1.000000 O
