
#======================================================================
# CRYSTAL DATA
#----------------------------------------------------------------------
data_VESTA_phase_1

_chemical_name_common                  'Fe2 O9 Si3'
_cell_length_a                         22.200001
_cell_length_b                         22.200001
_cell_length_c                         17.834999
_cell_angle_alpha                      125.029999
_cell_angle_beta                       95.980003
_cell_angle_gamma                      120.000000
_cell_volume                           5199.103138
_space_group_name_H-M_alt              'P -1'
_space_group_IT_number                 2

loop_
_space_group_symop_operation_xyz
   'x, y, z'
   '-x, -y, -z'

loop_
   _atom_site_label
   _atom_site_occupancy
   _atom_site_fract_x
   _atom_site_fract_y
   _atom_site_fract_z
   _atom_site_adp_type
   _atom_site_B_iso_or_equiv
   _atom_site_type_symbol
   Fe1        1.0     0.303800     0.353300     0.530000    Biso  1.000000 Fe
   Fe2        1.0     0.217100     0.431700     0.521700    Biso  1.000000 Fe
   Fe3        1.0     0.133500     0.269300     0.522300    Biso  1.000000 Fe
   Fe4        1.0     0.380300     0.510200     0.514400    Biso  1.000000 Fe
   Fe5        1.0     0.047600     0.343900     0.515500    Biso  1.000000 Fe
   Fe6        1.0     0.215300     0.178400     0.518000    Biso  1.000000 Fe
   Fe7        1.0     0.461800     0.421700     0.507300    Biso  1.000000 Fe
   Fe8        1.0     0.296400     0.592100     0.512500    Biso  1.000000 Fe
   Fe9        1.0     0.129500     0.508400     0.512400    Biso  1.000000 Fe
   Fe10       1.0     0.967900     0.176800     0.516400    Biso  1.000000 Fe
   Fe11       1.0     0.045200     0.089300     0.509500    Biso  1.000000 Fe
   Fe12       1.0     0.382800     0.261700     0.515300    Biso  1.000000 Fe
   Fe13       1.0     0.541600     0.332100     0.498400    Biso  1.000000 Fe
   Fe14       1.0     0.208700     0.669800     0.503500    Biso  1.000000 Fe
   Fe15       1.0     0.963700     0.421200     0.505800    Biso  1.000000 Fe
   Fe16       1.0     0.877200     0.254100     0.506100    Biso  1.000000 Fe
   Fe17       1.0     0.793100     0.084100     0.503600    Biso  1.000000 Fe
   Fe18       1.0     0.873200    -0.002100     0.497200    Biso  1.000000 Fe
   Fe19       1.0     0.294700     0.088200     0.507500    Biso  1.000000 Fe
   Fe20       1.0     0.374700     0.000900     0.500400    Biso  1.000000 Fe
   Fe21       1.0     0.461600     0.171100     0.504300    Biso  1.000000 Fe
   Fe22       1.0     0.375200     0.751900     0.502800    Biso  1.000000 Fe
   Fe23       1.0     0.290500     0.832300     0.499200    Biso  1.000000 Fe
   Fe24       1.0     0.542000     0.083200     0.500300    Biso  1.000000 Fe
   Si1        1.0     0.280400     0.273300     0.290100    Biso  1.000000 Si
   Si2        1.0     0.199100     0.352600     0.286900    Biso  1.000000 Si
   Si3        1.0     0.038000     0.271700     0.287600    Biso  1.000000 Si
   Si4        1.0     0.958200     0.110700     0.288200    Biso  1.000000 Si
   Si5        1.0     0.039000     0.029800     0.287200    Biso  1.000000 Si
   Si6        1.0     0.202900     0.114100     0.293300    Biso  1.000000 Si
   Si7        1.0     0.432000     0.338300     0.268100    Biso  1.000000 Si
   Si8        1.0     0.274400     0.507500     0.277200    Biso  1.000000 Si
   Si9        1.0     0.953400     0.345100     0.275100    Biso  1.000000 Si
   Si10       1.0     0.795200     0.027400     0.284100    Biso  1.000000 Si
   Si11       1.0     0.953000     0.859100     0.272800    Biso  1.000000 Si
   Si12       1.0     0.279700     0.026800     0.282100    Biso  1.000000 Si
   Si13       1.0     0.505900     0.491000     0.255200    Biso  1.000000 Si
   Si14       1.0     0.430600     0.579800     0.264800    Biso  1.000000 Si
   Si15       1.0     0.194000     0.587300     0.272200    Biso  1.000000 Si
   Si16       1.0     0.030700     0.502200     0.268400    Biso  1.000000 Si
   Si17       1.0     0.789900     0.260600     0.270300    Biso  1.000000 Si
   Si18       1.0     0.709000     0.099300     0.271000    Biso  1.000000 Si
   Si19       1.0     0.706600     0.855200     0.267800    Biso  1.000000 Si
   Si20       1.0     0.787200     0.772800     0.262300    Biso  1.000000 Si
   Si21       1.0     0.031200     0.774100     0.266400    Biso  1.000000 Si
   Si22       1.0     0.195000     0.858300     0.271600    Biso  1.000000 Si
   Si23       1.0     0.436600     0.099400     0.271200    Biso  1.000000 Si
   Si24       1.0     0.512000     0.255700     0.263000    Biso  1.000000 Si
   Si25       1.0     0.861500     0.559600     0.130100    Biso  1.000000 Si
   Si26       1.0     0.721900     0.560000     0.131100    Biso  1.000000 Si
   Si27       1.0     0.582100     0.420500     0.131500    Biso  1.000000 Si
   Si28       1.0     0.581900     0.280300     0.130900    Biso  1.000000 Si
   Si29       1.0     0.721200     0.279100     0.131100    Biso  1.000000 Si
   Si30       1.0     0.860300     0.419100     0.130300    Biso  1.000000 Si
   Si31       1.0     0.528000     0.894500     0.130800    Biso  1.000000 Si
   Si32       1.0     0.387700     0.893700     0.130200    Biso  1.000000 Si
   Si33       1.0     0.247600     0.754300     0.130500    Biso  1.000000 Si
   Si34       1.0     0.246000     0.613800     0.130900    Biso  1.000000 Si
   Si35       1.0     0.386500     0.614900     0.131300    Biso  1.000000 Si
   Si36       1.0     0.526800     0.754300     0.131300    Biso  1.000000 Si
   O1         1.0     0.180100     0.286500     0.430700    Biso  1.000000 O
   O2         1.0     0.172300     0.525300     0.415300    Biso  1.000000 O
   O3         1.0     0.168300     0.769500     0.402300    Biso  1.000000 O
   O4         1.0     0.173700     0.029500     0.414200    Biso  1.000000 O
   O5         1.0     0.256200     0.445200     0.420900    Biso  1.000000 O
   O6         1.0     0.251100     0.685500     0.405500    Biso  1.000000 O
   O7         1.0     0.252600     0.939100     0.404500    Biso  1.000000 O
   O8         1.0     0.260700     0.203600     0.427300    Biso  1.000000 O
   O9         1.0     0.338300     0.362700     0.424100    Biso  1.000000 O
   O10        1.0     0.334600     0.604600     0.410700    Biso  1.000000 O
   O11        1.0     0.334900     0.853800     0.405600    Biso  1.000000 O
   O12        1.0     0.339300     0.112300     0.415600    Biso  1.000000 O
   O13        1.0     0.418800     0.273000     0.411500    Biso  1.000000 O
   O14        1.0     0.414900     0.519300     0.408700    Biso  1.000000 O
   O15        1.0     0.416000     0.768600     0.404600    Biso  1.000000 O
   O16        1.0     0.419900     0.022800     0.407700    Biso  1.000000 O
   O17        1.0     0.496300     0.430700     0.401500    Biso  1.000000 O
   O18        1.0     0.494500     0.679400     0.397800    Biso  1.000000 O
   O19        1.0     0.502400     0.936100     0.404800    Biso  1.000000 O
   O20        1.0     0.501300     0.184700     0.403700    Biso  1.000000 O
   O21        1.0     0.579100     0.343000     0.395100    Biso  1.000000 O
   O22        1.0     0.573200     0.588900     0.387900    Biso  1.000000 O
   O23        1.0     0.582100     0.850000     0.401600    Biso  1.000000 O
   O24        1.0     0.585400     0.101600     0.404500    Biso  1.000000 O
   O25        1.0     0.667300     0.263500     0.399100    Biso  1.000000 O
   O26        1.0     0.658300     0.501900     0.383600    Biso  1.000000 O
   O27        1.0     0.662400     0.762600     0.393200    Biso  1.000000 O
   O28        1.0     0.670800     0.021300     0.407100    Biso  1.000000 O
   O29        1.0     0.745900     0.423500     0.389500    Biso  1.000000 O
   O30        1.0     0.744000     0.673500     0.381700    Biso  1.000000 O
   O31        1.0     0.750700     0.934900     0.400500    Biso  1.000000 O
   O32        1.0     0.752900     0.184000     0.403800    Biso  1.000000 O
   O33        1.0     0.838700     0.350200     0.403800    Biso  1.000000 O
   O34        1.0     0.829200     0.590800     0.386400    Biso  1.000000 O
   O35        1.0     0.833300     0.850000     0.395000    Biso  1.000000 O
   O36        1.0     0.844700     0.111600     0.417800    Biso  1.000000 O
   O37        1.0     0.923300     0.273800     0.412500    Biso  1.000000 O
   O38        1.0     0.911900     0.508600     0.389900    Biso  1.000000 O
   O39        1.0     0.909800     0.759900     0.385000    Biso  1.000000 O
   O40        1.0     0.923100     0.026100     0.410800    Biso  1.000000 O
   O41        1.0     0.005200     0.437500     0.408700    Biso  1.000000 O
   O42        1.0     0.000000     0.680700     0.394700    Biso  1.000000 O
   O43        1.0     0.005700     0.941600     0.406400    Biso  1.000000 O
   O44        1.0     0.010900     0.198600     0.422100    Biso  1.000000 O
   O45        1.0     0.093100     0.363500     0.421500    Biso  1.000000 O
   O46        1.0     0.084300     0.599800     0.401300    Biso  1.000000 O
   O47        1.0     0.084500     0.852900     0.399400    Biso  1.000000 O
   O48        1.0     0.093300     0.116000     0.421100    Biso  1.000000 O
   O49        1.0     0.222100     0.165200     0.249700    Biso  1.000000 O
   O50        1.0     0.222400     0.284700     0.246800    Biso  1.000000 O
   O51        1.0     0.101000     0.282600     0.245400    Biso  1.000000 O
   O52        1.0     0.980100     0.163100     0.246100    Biso  1.000000 O
   O53        1.0     0.982500     0.043700     0.245900    Biso  1.000000 O
   O54        1.0     0.104100     0.043800     0.248400    Biso  1.000000 O
   O55        1.0     0.336600     0.275700     0.237800    Biso  1.000000 O
   O56        1.0     0.218400     0.401200     0.240500    Biso  1.000000 O
   O57        1.0     0.979100     0.280000     0.239600    Biso  1.000000 O
   O58        1.0     0.859600     0.040200     0.244400    Biso  1.000000 O
   O59        1.0     0.979400     0.918000     0.238200    Biso  1.000000 O
   O60        1.0     0.224600     0.044400     0.246200    Biso  1.000000 O
   O61        1.0     0.450600     0.265600     0.224000    Biso  1.000000 O
   O62        1.0     0.447200     0.386000     0.221000    Biso  1.000000 O
   O63        1.0     0.450500     0.508300     0.219000    Biso  1.000000 O
   O64        1.0     0.334000     0.513000     0.229900    Biso  1.000000 O
   O65        1.0     0.213300     0.515800     0.233900    Biso  1.000000 O
   O66        1.0     0.095500     0.518700     0.229300    Biso  1.000000 O
   O67        1.0     0.978900     0.395700     0.231100    Biso  1.000000 O
   O68        1.0     0.855000     0.272200     0.231600    Biso  1.000000 O
   O69        1.0     0.732300     0.152500     0.229700    Biso  1.000000 O
   O70        1.0     0.739800     0.039600     0.237100    Biso  1.000000 O
   O71        1.0     0.736900     0.915300     0.234800    Biso  1.000000 O
   O72        1.0     0.729800     0.787100     0.223900    Biso  1.000000 O
   O73        1.0     0.854200     0.792700     0.226800    Biso  1.000000 O
   O74        1.0     0.978400     0.793300     0.228800    Biso  1.000000 O
   O75        1.0     0.096400     0.788300     0.228000    Biso  1.000000 O
   O76        1.0     0.216600     0.916300     0.236100    Biso  1.000000 O
   O77        1.0     0.339900     0.038000     0.235700    Biso  1.000000 O
   O78        1.0     0.457500     0.149600     0.226500    Biso  1.000000 O
   O79        1.0     0.561300     0.257200     0.201200    Biso  1.000000 O
   O80        1.0     0.557600     0.484300     0.196900    Biso  1.000000 O
   O81        1.0     0.436800     0.613700     0.203300    Biso  1.000000 O
   O82        1.0     0.210500     0.618500     0.208000    Biso  1.000000 O
   O83        1.0     0.960500     0.490700     0.205400    Biso  1.000000 O
   O84        1.0     0.732400     0.261800     0.207100    Biso  1.000000 O
   O85        1.0     0.607700     0.013300     0.205800    Biso  1.000000 O
   O86        1.0     0.605500     0.781100     0.203300    Biso  1.000000 O
   O87        1.0     0.730000     0.656300     0.200500    Biso  1.000000 O
   O88        1.0     0.961600     0.657500     0.204400    Biso  1.000000 O
   O89        1.0     0.211500     0.784500     0.207000    Biso  1.000000 O
   O90        1.0     0.440500     0.013000     0.206200    Biso  1.000000 O
   O91        1.0     0.845400     0.490600     0.149300    Biso  1.000000 O
   O92        1.0     0.813400     0.597000     0.166700    Biso  1.000000 O
   O93        1.0     0.672800     0.495100     0.154800    Biso  1.000000 O
   O94        1.0     0.584600     0.368500     0.167700    Biso  1.000000 O
   O95        1.0     0.671800     0.316400     0.151900    Biso  1.000000 O
   O96        1.0     0.812400     0.366900     0.166500    Biso  1.000000 O
   O97        1.0     0.555500     0.855100     0.167400    Biso  1.000000 O
   O98        1.0     0.454400     0.883900     0.150100    Biso  1.000000 O
   O99        1.0     0.326600     0.854600     0.166500    Biso  1.000000 O
   O100       1.0     0.278200     0.708200     0.149500    Biso  1.000000 O
   O101       1.0     0.324900     0.625500     0.167100    Biso  1.000000 O
   O102       1.0     0.454600     0.710700     0.153100    Biso  1.000000 O
   O103       1.0     0.824100     0.490600     0.000000    Biso  1.000000 O
   O104       1.0     0.668300     0.488100     0.000000    Biso  1.000000 O
   O105       1.0     0.512500     0.332100     0.000000    Biso  1.000000 O
   O106       1.0     0.510200     0.177600     0.000000    Biso  1.000000 O
   O107       1.0     0.667300     0.176100     0.000000    Biso  1.000000 O
   O108       1.0     0.823000     0.331400     0.000000    Biso  1.000000 O
